# MF2K-MT3DMS LINKER FILE
#
OUTPUT_FILE_NAME Case1-EI-40cell.hff
OUTPUT_FILE_UNIT
OUTPUT_FILE_HEADER standard
OUTPUT_FILE_FORMAT unformatted
